/*--------------------------------*- C++ -*----------------------------------*\
| =========                 |                                                 |
| \\      /  F ield         | OpenFOAM: The Open Source CFD Toolbox           |
|  \\    /   O peration     | Version:  2.0.0                                 |
|   \\  /    A nd           | Web:      www.OpenFOAM.org                      |
|    \\/     M anipulation  |                                                 |
\*---------------------------------------------------------------------------*/
FoamFile
{
    version     2.0;
    format      ascii;
    class       dictionary;
    location    "constant";
    object      dynamicMeshDict;
}
// * * * * * * * * * * * * * * * * * * * * * * * * * * * * * * * * * * * * * //

dynamicFvMesh      dynamicMotionSolverFvMesh;
motionSolverLibs   (
                      "libmysixDoFRigidBodyMotion.so"
                      "libfvMotionSolvers.so");

solver            displacementLaplacian;//the solver controls the mesh morphing method

displacementLaplacianCoeffs
{
    diffusivity inversePointDistance (inlet floatingObject);
}

// ************************************************************************* //
